Version 4
SHEET 1 880 680
WIRE 80 -192 32 -192
WIRE 240 -192 160 -192
WIRE 384 -192 240 -192
WIRE 656 -192 384 -192
WIRE 32 -160 32 -192
WIRE 240 -160 240 -192
WIRE 384 -144 384 -192
WIRE 240 -80 240 -96
WIRE 384 -16 384 -64
WIRE 656 64 656 -192
WIRE 656 64 576 64
WIRE 576 112 576 64
WIRE 656 112 656 64
WIRE 384 208 384 64
WIRE 384 208 352 208
WIRE 576 208 576 176
WIRE 576 208 384 208
WIRE 656 208 656 176
WIRE 656 208 576 208
WIRE 176 224 96 224
WIRE 288 224 256 224
WIRE 96 240 96 224
WIRE 400 240 352 240
WIRE 96 336 96 320
WIRE 336 336 96 336
WIRE 400 336 400 240
WIRE 400 336 336 336
WIRE 336 352 336 336
FLAG 336 352 0
FLAG 32 -160 0
FLAG 240 -80 0
SYMBOL voltage 176 -192 R90
WINDOW 0 -32 56 VBottom 2
WINDOW 3 32 56 VTop 2
WINDOW 123 0 0 Left 0
WINDOW 39 0 0 Left 0
SYMATTR InstName V1
SYMATTR Value 12
SYMBOL voltage 96 224 R0
WINDOW 3 -468 55 Left 2
WINDOW 123 0 0 Left 0
WINDOW 39 0 0 Left 0
SYMATTR Value PULSE(0 3.3 0 100n 100n 13u 20u)
SYMATTR InstName V2
SYMBOL Si3424CDV 320 224 R0
SYMATTR InstName U1
SYMBOL res 272 208 R90
WINDOW 0 0 56 VBottom 2
WINDOW 3 32 56 VTop 2
SYMATTR InstName R2
SYMATTR Value 280
SYMBOL schottky 592 176 R180
WINDOW 0 24 64 Left 2
WINDOW 3 24 0 Left 2
SYMATTR InstName D1
SYMATTR Value RB058LAM-30
SYMATTR Description Diode
SYMATTR Type diode
SYMBOL cap 640 112 R0
SYMATTR InstName C1
SYMATTR Value 100n
SYMBOL cap 224 -160 R0
SYMATTR InstName C2
SYMATTR Value 10µ
SYMBOL ind 368 -32 R0
SYMATTR InstName L1
SYMATTR Value 60µ
SYMBOL res 368 -160 R0
SYMATTR InstName R1
SYMATTR Value 4
TEXT -8 376 Left 2 !.tran 500u
