Version 4
SHEET 1 960 1192
WIRE -256 96 -336 96
WIRE -96 96 -176 96
WIRE -16 96 -96 96
WIRE 32 96 -16 96
WIRE 256 96 128 96
WIRE 368 96 352 96
WIRE 432 96 368 96
WIRE 480 96 432 96
WIRE -336 112 -336 96
WIRE -16 128 -16 96
WIRE 368 128 368 96
WIRE -96 144 -96 96
WIRE 432 192 432 96
WIRE -336 208 -336 192
WIRE -96 224 -96 208
WIRE -16 224 -16 208
WIRE -16 224 -96 224
WIRE 112 224 112 144
WIRE 112 224 -16 224
WIRE 160 224 112 224
WIRE 272 224 272 144
WIRE 272 224 160 224
WIRE 368 224 368 192
WIRE 160 240 160 224
WIRE 432 304 432 272
WIRE 96 368 32 368
WIRE 32 384 32 368
WIRE 160 384 160 320
WIRE 96 400 96 368
WIRE 112 400 96 400
WIRE 112 448 96 448
WIRE 160 480 160 464
WIRE 32 496 32 464
WIRE 96 496 96 448
WIRE 96 496 32 496
WIRE -256 704 -336 704
WIRE -96 704 -176 704
WIRE -16 704 -96 704
WIRE 32 704 -16 704
WIRE 256 704 128 704
WIRE 368 704 352 704
WIRE 432 704 368 704
WIRE 480 704 432 704
WIRE -336 720 -336 704
WIRE -16 736 -16 704
WIRE 368 736 368 704
WIRE -96 752 -96 704
WIRE 432 800 432 704
WIRE -336 816 -336 800
WIRE -96 832 -96 816
WIRE -16 832 -16 816
WIRE -16 832 -96 832
WIRE 112 832 112 752
WIRE 112 832 -16 832
WIRE 160 832 112 832
WIRE 272 832 272 752
WIRE 272 832 160 832
WIRE 368 832 368 800
WIRE 160 848 160 832
WIRE 432 912 432 880
WIRE 96 976 32 976
WIRE 32 992 32 976
WIRE 160 992 160 928
WIRE 96 1008 96 976
WIRE 112 1008 96 1008
WIRE 112 1056 96 1056
WIRE 160 1088 160 1072
WIRE 32 1104 32 1072
WIRE 96 1104 96 1056
WIRE 96 1104 32 1104
FLAG -336 208 0
FLAG 480 96 VOUT_1
FLAG 432 304 0
FLAG 160 480 0
FLAG 368 224 0
FLAG -336 816 0
FLAG 480 704 VOUT_2
FLAG 432 912 0
FLAG 160 1088 0
FLAG 368 832 0
SYMBOL pmos 32 144 R270
SYMATTR InstName M1
SYMATTR Value SQ4949EY_Q1
SYMBOL voltage -336 96 R0
WINDOW 123 0 0 Left 0
WINDOW 39 0 0 Left 0
SYMATTR InstName V1
SYMATTR Value 12
SYMBOL res 144 224 R0
SYMATTR InstName R1
SYMATTR Value 1k
SYMBOL res -32 112 R0
SYMATTR InstName R2
SYMATTR Value 10k
SYMBOL pmos 352 144 M270
SYMATTR InstName M2
SYMATTR Value SQ4949EY_Q1
SYMBOL res -160 80 R90
WINDOW 0 0 56 VBottom 2
WINDOW 3 32 56 VTop 2
SYMATTR InstName R4
SYMATTR Value 15
SYMBOL res 416 176 R0
SYMATTR InstName R5
SYMATTR Value 1k
SYMBOL sw 160 368 R0
SYMATTR InstName S1
SYMATTR Value MYSW
SYMBOL cap -112 144 R0
SYMATTR InstName C1
SYMATTR Value 1µ
SYMBOL voltage 32 480 R180
WINDOW 3 61 110 Left 2
WINDOW 123 0 0 Left 0
WINDOW 39 0 0 Left 0
SYMATTR InstName V2
SYMATTR Value PULSE(0 3 200m 1m 1m 1)
SYMBOL cap 352 128 R0
SYMATTR InstName C2
SYMATTR Value 1µ
SYMBOL pmos 32 752 R270
SYMATTR InstName M3
SYMATTR Value SQ4949EY_Q1
SYMBOL voltage -336 704 R0
WINDOW 123 0 0 Left 0
WINDOW 39 0 0 Left 0
SYMATTR InstName V3
SYMATTR Value -12
SYMBOL res 144 832 R0
SYMATTR InstName R3
SYMATTR Value 1k
SYMBOL res -32 720 R0
SYMATTR InstName R6
SYMATTR Value 10k
SYMBOL pmos 352 752 M270
SYMATTR InstName M4
SYMATTR Value SQ4949EY_Q1
SYMBOL res -160 688 R90
WINDOW 0 0 56 VBottom 2
WINDOW 3 32 56 VTop 2
SYMATTR InstName R7
SYMATTR Value 15
SYMBOL res 416 784 R0
SYMATTR InstName R8
SYMATTR Value 1k
SYMBOL sw 160 976 R0
SYMATTR InstName S2
SYMATTR Value MYSW
SYMBOL cap -112 752 R0
SYMATTR InstName C3
SYMATTR Value 1µ
SYMBOL voltage 32 1088 R180
WINDOW 3 61 110 Left 2
WINDOW 123 0 0 Left 0
WINDOW 39 0 0 Left 0
SYMATTR InstName V4
SYMATTR Value PULSE(0 3 200m 1m 1m 1)
SYMBOL cap 352 736 R0
SYMATTR InstName C4
SYMATTR Value 1µ
TEXT -232 1176 Left 2 !.model MYSW SW(Ron=1 Roff=1Meg Vt=.5 Vh=-.4)
TEXT -234 1136 Left 2 !.tran 500m startup
TEXT 504 464 Left 2 ;Back-to-back PMOS for reverse current
